13
  -44.88566526  
 Ag 0.6135 -0.540503 1.08321
 Ag 2.8653 -0.0803004 0.148669
 Ag -0.718471 1.54766 0.937564
 Ag 3.95601 1.62634 1.58168
 Ag 0.85924 0.953098 -0.882631
 Ag 0.312513 0.881719 3.09381
 Ag 0.710129 3.29842 -0.0869998
 Ag 2.92502 2.29228 -0.574564
 Ag 2.3783 2.2209 3.40187
 Ag 1.61877 1.587 1.25962
 Ag 2.62404 3.7145 1.43603
 Ag 2.52741 -0.124415 2.60624
 Ag 0.372234 3.2543 2.37057
