13
  -44.88566526  
 Ag 0.546704 -1.48679 3.75626
 Ag 3.95372 0.610554 3.42541
 Ag 1.65762 -2.15748 1.64159
 Ag 2.05961 2.21239 3.37782
 Ag 3.01869 -1.67566 3.6593
 Ag -0.0460362 0.916166 3.58229
 Ag -0.236481 -0.555636 1.594
 Ag 3.76327 -0.861248 1.43711
 Ag 0.698549 1.73058 1.36011
 Ag 1.85862 0.0274589 2.5097
 Ag 1.75147 -0.169032 0.160688
 Ag 1.96577 0.22395 4.85872
 Ag 3.17053 1.5417 1.26315
