13
  -44.88566526  
 Ag 1.687 -0.695424 4.36462
 Ag 4.0641 -0.236319 3.82207
 Ag 0.362805 -0.444195 2.28155
 Ag 4.23936 2.12542 3.08231
 Ag 2.6316 -1.44473 2.1962
 Ag 0.393116 1.38257 3.96017
 Ag 0.538058 1.91755 1.54179
 Ag 4.20905 0.298653 1.40369
 Ag 1.97056 3.12595 3.16766
 Ag 2.30108 0.840614 2.68193
 Ag 1.92152 0.170179 0.451595
 Ag 2.68065 1.51105 4.91227
 Ag 2.91517 2.37665 0.999243
