13
  -44.88566526  
 Ag 1.7769 -1.18815 4.30472
 Ag 3.8587 -0.307285 3.28198
 Ag -0.0346086 -1.02579 2.61717
 Ag 3.50354 2.09364 2.767
 Ag 2.26668 -1.62878 1.91271
 Ag 0.135134 0.668365 4.42183
 Ag -0.389761 1.37513 2.10218
 Ag 3.3338 0.39948 0.962339
 Ag 1.20226 2.69662 3.47146
 Ag 1.73447 0.533923 2.69208
 Ag 0.927606 -0.0445829 0.551461
 Ag 2.54133 1.11243 4.83271
 Ag 1.69203 2.256 1.07944
