13
  -44.88566526  
 Ag 1.14426 -1.15575 2.0283
 Ag 3.57631 -0.669866 1.95889
 Ag 0.00599444 0.404211 0.470518
 Ag 3.92108 1.63933 2.79827
 Ag 2.22497 -0.537067 -0.117648
 Ag -0.0140636 0.853154 2.91056
 Ag 1.73456 1.8542 -0.561648
 Ag 3.94114 1.19038 0.358219
 Ag 1.70211 2.5806 3.38643
 Ag 1.96354 1.02177 1.63439
 Ag 2.78282 3.19928 1.24049
 Ag 2.19251 0.189338 3.83043
 Ag 0.350767 2.7134 1.30989
