13
  -44.88566526  
 Ag 0.716079 -0.629557 0.775845
 Ag 3.00496 0.141325 0.207926
 Ag -0.820509 1.30648 0.560369
 Ag 3.67789 1.84429 1.8821
 Ag 1.05248 1.02488 -1.04225
 Ag -0.0255999 0.596974 2.80102
 Ag 0.518712 3.2739 -0.140722
 Ag 2.88298 2.5538 -0.358544
 Ag 1.8049 2.12589 3.48472
 Ag 1.42869 1.57538 1.22124
 Ag 2.1413 3.78033 1.66663
 Ag 2.33867 -0.123134 2.58319
 Ag -0.147579 3.00944 2.23455
