13
  -44.88566526  
 Ag 1.70882 -0.511706 2.86423
 Ag 3.85733 0.239426 1.87656
 Ag -0.0529828 -0.28194 1.13245
 Ag 3.64314 2.64671 1.31541
 Ag 2.2279 -1.01859 0.491591
 Ag 0.16678 1.43135 2.91349
 Ag 1.00668 0.611196 -0.925514
 Ag 3.42338 0.933418 -0.465627
 Ag 1.36226 3.38336 1.95627
 Ag 1.79508 1.18239 1.22393
 Ag 1.88135 2.87648 -0.416363
 Ag 2.58348 1.75358 3.37338
 Ag -0.267166 2.12534 0.571303
