13
  -44.88566526  
 Ag 1.09642 -0.63539 5.4657
 Ag 3.11883 -0.387349 2.00674
 Ag 0.0910171 -2.24967 3.87226
 Ag 0.772909 1.64791 4.55045
 Ag 2.54627 -1.89325 3.8936
 Ag -1.00498 -0.0611195 4.27821
 Ag -0.853861 -0.964058 1.97221
 Ag 1.34094 -2.09638 1.73451
 Ag -0.432429 1.44478 2.39136
 Ag 2.02283 1.8012 2.4127
 Ag 1.05692 -0.224234 3.14248
 Ag 2.96771 0.51559 4.31274
 Ag 1.01743 0.186921 0.819258
