13
  -44.88566526  
 Ag 0.754468 0.072327 4.15526
 Ag 3.16565 -0.0995483 3.59628
 Ag -0.51977 0.178904 2.02905
 Ag 3.82732 1.97617 2.40912
 Ag 1.48247 -1.27584 2.20379
 Ag -0.0740497 2.25427 3.31356
 Ag 1.10389 0.0728964 0.156013
 Ag 3.3816 -0.0991964 1.12461
 Ag 1.82508 3.43091 2.23439
 Ag 1.65378 1.07754 2.21909
 Ag 2.55308 2.08275 0.282917
 Ag 2.20366 2.08218 4.28216
 Ag 0.141903 2.25462 0.841892
