13
  -44.88566526  
 Ag -0.0424765 -0.769023 3.21603
 Ag 3.89884 -0.0494575 3.46962
 Ag 0.965917 -1.23292 0.997082
 Ag 2.70225 2.08753 3.86617
 Ag 2.20251 -1.8149 3.06781
 Ag 0.266379 1.64281 3.70944
 Ag -0.230677 0.904067 1.39363
 Ag 3.40178 -0.788199 1.15381
 Ag 1.46565 2.66951 1.79544
 Ag 1.83408 0.427305 2.43163
 Ag 1.89799 0.892216 0.11911
 Ag 1.77017 -0.0376058 4.74414
 Ag 3.71064 1.62363 1.64722
