13
  -44.88566526  
 Ag 0.905762 -0.757539 5.15426
 Ag 2.83546 -0.765987 1.63399
 Ag -0.367698 -2.19715 3.58531
 Ag 0.88247 1.55728 4.2616
 Ag 2.11277 -2.1934 3.53031
 Ag -1.12807 0.1209 4.03727
 Ag -1.17803 -0.772055 1.72298
 Ag 0.82492 -2.20237 1.40967
 Ag -0.405385 1.54831 2.14096
 Ag 2.07509 1.55206 2.08596
 Ag 0.853695 -0.322544 2.83563
 Ag 2.88542 0.126968 3.94828
 Ag 0.801627 0.112452 0.517006
