13
  -44.88566526  
 Ag 2.00384 -0.72444 3.89171
 Ag 4.3199 -0.579578 3.01384
 Ag 0.445979 -0.185216 2.0375
 Ag 4.7328 1.76752 2.32359
 Ag 2.50686 -1.49094 1.58623
 Ag 0.98533 1.53313 3.74401
 Ag 0.858874 2.16188 1.34725
 Ag 4.19345 0.0491754 0.617083
 Ag 2.67192 3.07324 2.77487
 Ag 2.58939 0.79115 2.18055
 Ag 1.79923 0.292905 0.0136712
 Ag 3.37955 1.2894 4.34743
 Ag 3.17494 2.30674 0.469387
