13
  -43.66290062  
 Ag 1.08242 -1.10023 3.67111
 Ag 4.99954 -0.420233 3.4992
 Ag 0.955202 -1.3781 1.189
 Ag 3.96604 1.10322 2.01812
 Ag 3.12611 -1.24404 2.32188
 Ag 0.620899 1.30414 4.18127
 Ag 0.249467 2.49614 2.03181
 Ag 2.74383 -0.0269561 0.191801
 Ag 2.41127 2.64134 3.16851
 Ag 1.6223 0.615342 2.1936
 Ag 0.455873 0.840069 0.18432
 Ag 2.91615 0.440613 4.20125
 Ag 2.29694 2.35866 0.706278
