13
  -44.88566526  
 Ag 1.39996 -1.3482 1.9943
 Ag 3.77995 -0.716438 1.69046
 Ag 0.00855643 0.280353 0.742273
 Ag 4.11529 1.52103 2.70882
 Ag 2.18129 -0.470717 -0.190946
 Ag 0.264388 0.498818 3.20044
 Ag 1.52861 1.91862 -0.335367
 Ag 3.85946 1.30257 0.250648
 Ag 1.94255 2.2721 3.64204
 Ag 2.06192 0.900694 1.72555
 Ag 2.72388 3.14959 1.45679
 Ag 2.59524 -0.117233 3.78646
 Ag 0.343896 2.51783 1.76063
