13
  -44.88566526  
 Ag 1.27317 -1.28656 4.16682
 Ag 3.59653 -0.843976 3.41721
 Ag -0.25518 -0.739357 2.29052
 Ag 3.80058 1.5832 2.94503
 Ag 1.94207 -1.79686 1.83273
 Ag 0.0413059 0.867093 4.15793
 Ag -0.0511333 1.68782 1.81834
 Ag 3.50409 -0.0232478 1.07763
 Ag 1.60333 2.6407 3.40282
 Ag 1.7727 0.421923 2.61778
 Ag 1.1236 0.0414107 0.381296
 Ag 2.42179 0.802435 4.85426
 Ag 2.27222 2.1304 1.06873
