13
  -44.88566526  
 Ag 0.338226 -1.04199 3.84703
 Ag 4.14853 -0.334602 2.79953
 Ag 0.505662 -1.24597 1.38002
 Ag 3.23496 1.73719 3.81385
 Ag 2.35825 -2.05223 2.82003
 Ag 0.880065 1.3 4.46124
 Ag -0.407904 0.825829 2.39434
 Ag 2.86056 -0.808772 0.732624
 Ag 1.38238 2.54346 2.37383
 Ag 1.87031 0.245614 2.59693
 Ag 1.15098 0.969968 0.46953
 Ag 2.58964 -0.478741 4.72433
 Ag 3.4024 1.53322 1.34684
