13
  -44.88566526  
 Ag 1.2802 -1.04821 2.21733
 Ag 3.65324 -0.351454 2.41483
 Ag 0.186702 0.420489 0.543115
 Ag 3.70037 1.97136 3.28551
 Ag 2.53061 -0.318337 0.202497
 Ag -0.139285 0.843991 2.96596
 Ag 1.88392 2.02494 -0.294108
 Ag 4.02636 1.54786 0.862672
 Ag 1.35647 2.71018 3.62613
 Ag 1.94354 1.19592 1.91431
 Ag 2.60688 3.44005 1.6113
 Ag 2.00315 0.366904 4.12274
 Ag 0.233839 2.7433 1.4138
