13
  -44.88566526  
 Ag 1.18342 -0.366834 3.73194
 Ag 3.58094 -0.301434 3.09681
 Ag -0.164694 -0.14687 1.66071
 Ag 4.05178 1.92502 2.10839
 Ag 1.94183 -1.4575 1.63646
 Ag 0.172508 1.8192 3.13605
 Ag 1.39965 0.0544745 -0.254512
 Ag 3.71458 -0.0410511 0.633048
 Ag 1.94526 3.23565 2.13264
 Ag 1.94354 0.889076 1.88455
 Ag 2.70367 2.14499 0.0371573
 Ag 2.48744 1.72368 4.02361
 Ag 0.306148 2.07959 0.672287
