13
  -42.95258692  
 Ag -0.00857804 -1.25478 -0.373443
 Ag 1.98704 -0.0369962 -0.0375349
 Ag -0.14667 1.0832 -0.504995
 Ag 0.144988 0.00856863 1.62182
 Ag 1.73794 2.33511 0.288775
 Ag -0.258212 2.37782 1.55718
 Ag 2.30557 0.85379 2.20488
 Ag 3.93123 1.40177 0.513888
 Ag 1.8262 3.18585 2.59544
 Ag 0.416645 1.41463 3.60923
 Ag 3.5309 3.731 0.95864
 Ag 2.59126 1.80726 4.42718
 Ag 4.15069 2.32579 2.73096
