13
  -44.88566526  
 Ag 1.27903 -0.456997 3.53849
 Ag 3.63387 -0.261533 2.78197
 Ag -0.188822 -0.163011 1.55992
 Ag 3.97129 2.03732 1.91179
 Ag 1.95747 -1.38832 1.34119
 Ag 0.161093 1.72105 3.13588
 Ag 1.25883 0.214147 -0.419435
 Ag 3.62138 0.153257 0.335831
 Ag 1.825 3.26262 2.13052
 Ag 1.89124 0.937154 1.73586
 Ag 2.50344 2.33131 -0.0667835
 Ag 2.52364 1.66016 3.89115
 Ag 0.148605 2.13584 0.689745
