13
  -44.88566526  
 Ag 0.00465593 -1.1353 4.24385
 Ag 3.64012 0.446305 3.61298
 Ag 0.951923 -2.18072 2.20288
 Ag 1.96654 2.26686 3.41176
 Ag 2.42761 -1.65635 4.12724
 Ag -0.280298 1.28938 3.80166
 Ag -0.721655 -0.36016 2.00166
 Ag 3.19876 -1.20323 1.81298
 Ag 0.490857 1.74249 1.4874
 Ag 1.45923 0.0430726 2.80732
 Ag 1.25241 -0.402147 0.499299
 Ag 1.66605 0.488293 5.11534
 Ag 2.91381 1.22144 1.37079
