13
  -43.59903659  
 Ag 1.09803 -1.19004 1.10902
 Ag 1.4022 0.399227 -0.751939
 Ag -0.65687 0.382583 0.605042
 Ag 3.80807 1.38227 2.31609
 Ag 0.289457 2.44456 -0.184048
 Ag -0.529689 2.23019 2.197
 Ag 1.25598 3.66928 1.58318
 Ag 3.24094 -0.200356 0.663562
 Ag 1.88717 2.29524 3.47574
 Ag 1.4063 1.13742 1.53727
 Ag 2.85623 2.32451 0.192684
 Ag 2.36159 -0.360784 3.02732
 Ag 3.49057 3.66991 2.18211
