13
  -44.88566526  
 Ag 1.17719 -0.937865 2.13531
 Ag 3.56771 -0.275708 2.18798
 Ag 0.0246672 0.483459 0.459806
 Ag 3.69441 2.07808 2.96221
 Ag 2.33687 -0.309103 0.0339796
 Ag -0.173523 1.00668 2.87698
 Ag 1.70288 2.02404 -0.523038
 Ag 3.8926 1.55485 0.545032
 Ag 1.3822 2.87064 3.38803
 Ag 1.85954 1.28077 1.71101
 Ag 2.54188 3.4994 1.28671
 Ag 2.0162 0.537492 3.94505
 Ag 0.15137 2.83724 1.23403
