13
  -42.55897049  
 Ag -0.858984 -0.858984 -0.858984
 Ag 1.38253 -0.350219 -0.350219
 Ag -0.350219 1.38253 -0.350219
 Ag -0.350219 -0.350219 1.38253
 Ag 1.92075 1.92075 0.180277
 Ag 0.180277 1.92075 1.92075
 Ag 1.92075 0.180277 1.92075
 Ag 3.95168 1.02903 1.02903
 Ag 1.02903 3.95168 1.02903
 Ag 1.02903 1.02903 3.95168
 Ag 3.27873 3.27873 1.58793
 Ag 1.58793 3.27873 3.27873
 Ag 3.27873 1.58793 3.27873
