13
  -44.88566526  
 Ag 1.10546 -1.14184 1.95217
 Ag 3.49124 -0.47745 2.10183
 Ag 0.0407107 0.219448 0.172004
 Ag 3.58221 1.90209 2.79847
 Ag 2.37027 -0.586795 -0.108884
 Ag -0.278069 0.827079 2.55632
 Ag 1.76845 1.72516 -0.778539
 Ag 3.90099 1.29446 0.414159
 Ag 1.25265 2.70833 3.07936
 Ag 1.81146 1.06077 1.48524
 Ag 2.51747 3.26338 1.01831
 Ag 1.85448 0.396372 3.74901
 Ag 0.131682 2.59899 0.868646
