13
  -44.88566526  
 Ag 1.3386 -0.70876 3.26714
 Ag 3.59464 -0.148654 2.39975
 Ag -0.301097 -0.320756 1.44598
 Ag 3.62387 2.26922 1.84404
 Ag 1.93687 -1.25498 0.922037
 Ag -0.0264696 1.36295 3.2475
 Ag 0.94155 0.479149 -0.54695
 Ag 3.34925 0.585514 0.0425135
 Ag 1.38591 3.20344 2.36798
 Ag 1.66139 0.974232 1.64501
 Ag 1.98418 2.65722 0.0228789
 Ag 2.38123 1.46931 3.83697
 Ag -0.27186 2.09712 0.890267
