13
  -44.88566526  
 Ag 1.25565 -0.90946 1.70845
 Ag 3.61066 -0.381372 1.13329
 Ag -0.185969 0.862349 0.739828
 Ag 4.20212 1.76842 2.22157
 Ag 1.8035 0.0617921 -0.507923
 Ag 0.391624 0.913957 3.15219
 Ag 1.27808 2.48548 -0.433971
 Ag 3.62453 1.71681 -0.190799
 Ag 2.21265 2.56898 3.46932
 Ag 2.00807 1.31539 1.4807
 Ag 2.7605 3.54023 1.25295
 Ag 2.73807 0.145296 3.39537
 Ag 0.40549 3.01214 1.82811
