13
  -44.88566526  
 Ag 0.108389 -0.741988 4.52099
 Ag 3.73933 0.265674 3.13646
 Ag 0.5825 -2.13787 2.52537
 Ag 2.26535 2.25171 2.93942
 Ag 2.40626 -1.58453 4.11393
 Ag 0.0213025 1.62894 3.79511
 Ag -0.891483 -0.151838 2.32833
 Ag 2.82655 -1.5151 1.66968
 Ag 0.441591 1.69837 1.35087
 Ag 1.42392 0.056918 2.7324
 Ag 0.78843 -0.629649 0.566126
 Ag 2.05942 0.743485 4.89867
 Ag 2.73946 0.855824 0.943801
