13
  -44.88566526  
 Ag 1.63459 -0.733101 4.6582
 Ag 3.80816 0.0161888 3.72548
 Ag -0.00199656 -0.841701 2.7966
 Ag 3.50893 2.3117 2.8328
 Ag 2.3565 -1.51111 2.41559
 Ag -0.00796805 1.09932 4.34198
 Ag -0.301224 1.45381 1.90392
 Ag 3.5149 0.370675 1.28742
 Ag 1.15043 2.98111 3.21381
 Ag 1.75347 0.734998 2.8147
 Ag 1.1601 -0.15953 0.713345
 Ag 2.34684 1.62953 4.91605
 Ag 1.87234 2.2031 0.971194
