13
  -43.72231547  
 Ag 1.71469 -0.046365 4.21536
 Ag 3.73193 0.333215 2.8573
 Ag -0.254566 0.0583012 2.74309
 Ag 2.94242 0.688662 0.427331
 Ag 1.81621 -0.983662 1.91786
 Ag 0.305042 1.98426 4.15258
 Ag 0.488016 0.505897 0.439886
 Ag 4.03182 -1.26869 1.15631
 Ag 1.39163 3.65014 2.73363
 Ag 1.70759 1.37928 2.2988
 Ag 1.48742 2.74106 0.414637
 Ag 2.72994 2.18166 4.23889
 Ag -0.450074 2.32422 1.82847
