13
  -44.88566526  
 Ag 1.23602 -1.08292 2.0014
 Ag 3.6183 -0.392518 2.06337
 Ag -0.003518 0.563017 0.619281
 Ag 3.74859 1.8116 3.19504
 Ag 2.29825 -0.108806 -0.0181483
 Ag -0.106029 0.694515 3.09476
 Ag 1.61269 2.27066 -0.172935
 Ag 3.8511 1.6801 0.719564
 Ag 1.44683 2.48342 3.83247
 Ag 1.87254 1.18731 1.90716
 Ag 2.50906 3.45753 1.81292
 Ag 2.13238 0.103962 3.98726
 Ag 0.126771 2.76714 1.75095
