13
  -44.88566526  
 Ag 1.74613 -1.2274 4.49278
 Ag 3.67484 -0.510028 3.1067
 Ag -0.299352 -1.07724 3.09663
 Ag 3.3366 1.87078 2.49585
 Ag 1.83841 -1.83128 2.08808
 Ag 0.215867 0.71004 4.73857
 Ag -0.637599 1.30357 2.48577
 Ag 2.82138 0.0834993 0.853906
 Ag 1.19883 2.62482 3.50439
 Ag 1.51862 0.39677 2.79624
 Ag 0.365189 -0.267055 0.847677
 Ag 2.67205 1.06059 4.7448
 Ag 1.29112 2.02094 1.09969
