13
  -43.59903659  
 Ag 1.40509 -2.16552 4.1547
 Ag 3.78255 1.11212 2.74897
 Ag 1.49708 -2.01295 1.75924
 Ag 1.92546 1.70723 4.6667
 Ag 3.5572 -1.58275 3.15823
 Ag -0.168638 1.34554 3.29913
 Ag -0.363933 -1.00714 2.88578
 Ag 3.1885 -0.524865 1.06507
 Ag 1.74819 2.37915 2.39658
 Ag 1.82375 -0.0424686 3.14827
 Ag 0.86222 0.418336 1.10316
 Ag 0.414688 -0.16862 5.07029
 Ag 2.90388 1.70291 0.510001
