13
  -44.88566526  
 Ag 1.92664 -0.646409 4.26315
 Ag 4.25976 -0.193326 3.55107
 Ag 0.476234 -0.534909 2.25326
 Ag 4.35485 2.12198 2.66445
 Ag 2.75058 -1.51276 2.08914
 Ag 0.579788 1.38888 3.81662
 Ag 0.57133 1.7804 1.36664
 Ag 4.2513 0.198195 1.10109
 Ag 2.08051 3.09984 2.82857
 Ag 2.41554 0.793536 2.45886
 Ag 1.91295 -0.0129146 0.298995
 Ag 2.91813 1.59999 4.61872
 Ag 2.90445 2.23348 0.654559
