13
  -44.88566526  
 Ag 0.783632 -1.21869 5.10569
 Ag 3.44071 0.118693 2.40988
 Ag 0.524356 -2.56732 3.03935
 Ag 1.85042 1.95962 2.89745
 Ag 2.7814 -1.84561 3.77465
 Ag 0.208252 1.13307 4.56355
 Ag -1.06594 -0.726394 3.52692
 Ag 2.16652 -1.74077 1.37325
 Ag -0.406629 1.23791 2.16215
 Ag 1.18739 -0.30385 2.9684
 Ag -0.211266 -1.04906 1.22014
 Ag 2.58604 0.441356 4.71665
 Ag 1.59114 0.610993 0.831109
