13
  -43.06987007  
 Ag 2.26549 -1.20074 3.96027
 Ag 4.62647 -0.90024 3.69624
 Ag 1.10565 0.363561 2.49163
 Ag 5.036 0.944747 2.22536
 Ag 3.20554 -0.568201 1.79859
 Ag 1.07499 0.673557 4.86619
 Ag 0.560972 2.32313 1.15113
 Ag 4.15371 0.713848 0.0147211
 Ag 1.35618 2.56556 3.42023
 Ag 1.75516 0.461395 0.0979092
 Ag -0.506274 0.272463 0.75497
 Ag 3.1983 1.01606 3.81975
 Ag 2.89588 1.95681 1.62815
