13
  -44.88566526  
 Ag 0.492284 -1.40866 3.9519
 Ag 3.82677 0.728072 3.29491
 Ag 1.29688 -1.92759 1.66299
 Ag 1.94928 2.31728 3.61934
 Ag 2.92629 -1.57468 3.50045
 Ag -0.111544 0.996703 4.02538
 Ag -0.580607 -0.338387 1.98742
 Ag 3.3577 -0.607018 1.25695
 Ag 0.319867 1.96437 1.78188
 Ag 1.62308 0.194843 2.64116
 Ag 1.19032 0.157056 0.321843
 Ag 2.05584 0.232629 4.96048
 Ag 2.75388 1.79835 1.33043
