13
  -44.88566526  
 Ag 0.0438475 -0.828257 3.85894
 Ag 3.91502 -0.542564 2.835
 Ag 0.217265 -1.18348 1.40955
 Ag 3.19182 1.65917 3.72108
 Ag 1.96946 -2.07988 2.9202
 Ag 0.799309 1.4826 4.35391
 Ag -0.505929 1.01825 2.29563
 Ag 2.60978 -1.00691 0.776716
 Ag 1.43963 2.55557 2.21043
 Ag 1.70454 0.237844 2.56532
 Ag 1.0799 0.907837 0.390714
 Ag 2.32918 -0.432149 4.73992
 Ag 3.36524 1.30395 1.27169
