13
  -44.88566526  
 Ag 1.90579 -0.578143 4.63503
 Ag 4.02019 0.221259 3.61227
 Ag 0.280918 -0.997948 2.80764
 Ag 3.55771 2.38302 2.48591
 Ag 2.68115 -1.53459 2.48101
 Ag 0.136535 1.08956 4.14077
 Ag -0.181562 1.16381 1.68128
 Ag 3.70209 0.295511 1.15278
 Ag 1.15748 2.91966 2.81255
 Ag 1.91931 0.692536 2.64678
 Ag 1.3911 -0.458 0.655493
 Ag 2.44753 1.84307 4.63806
 Ag 1.93284 1.96322 0.658524
