13
  -44.88566526  
 Ag 0.675569 -1.05991 5.20727
 Ag 3.13874 0.551633 2.47748
 Ag 0.558509 -2.4484 3.15442
 Ag 1.34949 2.20024 2.96376
 Ag 2.72223 -1.46325 3.86404
 Ag -0.172833 1.20425 4.65087
 Ag -1.23074 -0.799797 3.64071
 Ag 2.08083 -1.45241 1.46732
 Ag -0.814234 1.21509 2.25415
 Ag 0.954 -0.124082 3.05909
 Ag -0.362239 -1.04237 1.32929
 Ag 2.27024 0.79421 4.78889
 Ag 1.23243 0.811749 0.910916
