13
  -44.88566526  
 Ag 0.348804 -1.12654 3.6894
 Ag 4.19254 -0.467806 2.7366
 Ag 0.53408 -1.11382 1.21528
 Ag 3.34347 1.53643 3.92735
 Ag 2.34173 -2.11361 2.58954
 Ag 0.96791 1.12931 4.51622
 Ag -0.314989 0.890418 2.40603
 Ag 2.90964 -0.7067 0.626413
 Ag 1.53581 2.53623 2.55309
 Ag 1.93877 0.211306 2.57132
 Ag 1.26769 1.14989 0.513
 Ag 2.60985 -0.727281 4.62963
 Ag 3.52874 1.54915 1.45323
