13
  -43.59903659  
 Ag 0.710429 -0.636196 4.47557
 Ag 2.88391 -1.43143 3.85292
 Ag 1.13443 -1.10123 1.96217
 Ag 4.35318 0.588755 3.47022
 Ag 3.61405 -0.809354 1.69953
 Ag 0.827652 1.81326 4.73608
 Ag -0.34669 0.818968 2.89155
 Ag 2.26331 -0.373289 -0.127338
 Ag 1.18847 2.79325 2.52846
 Ag 2.07995 0.711856 3.02898
 Ag 0.820614 1.13651 0.86825
 Ag 2.74851 0.475215 5.30769
 Ag 3.19324 1.51765 1.17407
