13
  -44.88566526  
 Ag 1.28431 -0.805259 2.24556
 Ag 3.58939 -0.0733859 1.69172
 Ag -0.217627 -0.0569606 0.417981
 Ag 3.61579 2.40712 1.64481
 Ag 2.07114 -0.858122 -0.106864
 Ag -0.113916 1.22292 2.54093
 Ag 1.15921 1.13739 -1.26536
 Ag 3.51208 1.12723 -0.478148
 Ag 1.32702 3.20828 2.16965
 Ag 1.69908 1.17508 1.03139
 Ag 2.11385 3.15541 -0.182769
 Ag 2.23895 1.21277 3.32815
 Ag -0.19123 2.42354 0.371069
