13
  -44.88566526  
 Ag 1.38421 -0.668664 1.88884
 Ag 3.64087 0.0258362 1.12664
 Ag -0.257195 0.980475 1.02749
 Ag 4.1535 2.22568 2.15314
 Ag 1.68264 0.315398 -0.369111
 Ag 0.502147 1.10195 3.38639
 Ag 0.985022 2.6942 -0.267048
 Ag 3.39416 2.1042 -0.205767
 Ag 2.21366 2.89076 3.54974
 Ag 1.94815 1.60308 1.59031
 Ag 2.5121 3.87482 1.29179
 Ag 2.91128 0.511954 3.44767
 Ag 0.255437 3.18032 2.05398
