13
  -44.88566526  
 Ag 1.11013 -0.833734 1.87855
 Ag 3.51779 -0.529683 1.3623
 Ag -0.145553 1.0105 0.793278
 Ag 4.25724 1.60673 2.38442
 Ag 1.8051 -0.00582017 -0.354688
 Ag 0.36157 1.11476 3.21974
 Ag 1.48605 2.45436 -0.393715
 Ag 3.75012 1.50247 -0.0420423
 Ag 2.30659 2.62305 3.53239
 Ag 2.05584 1.30862 1.58885
 Ag 3.00156 3.45097 1.29915
 Ag 2.62564 0.162876 3.57142
 Ag 0.593898 3.14691 1.81541
