13
  -44.88566526  
 Ag 0.548025 -0.838749 1.17457
 Ag 2.90097 -0.309394 0.592142
 Ag -0.853176 1.1122 0.553098
 Ag 3.61763 1.62119 1.97599
 Ag 1.05684 0.448388 -0.884596
 Ag -0.189509 0.764671 2.91838
 Ag 0.633777 2.8473 -0.413421
 Ag 2.95397 1.96871 -0.389291
 Ag 1.70761 2.28499 3.41368
 Ag 1.38223 1.36669 1.26454
 Ag 2.21643 3.57213 1.35452
 Ag 2.13068 -0.11392 2.94251
 Ag -0.136512 3.04278 1.93695
