13
  -43.72231547  
 Ag 0.0297024 -0.896913 4.04716
 Ag 3.93405 1.82087 3.90019
 Ag 0.149718 -2.06635 1.89608
 Ag 2.03007 2.2363 2.57668
 Ag 2.19491 -1.75318 3.25017
 Ag -0.0742514 1.52768 3.63845
 Ag -1.24713 -0.0467191 2.13509
 Ag 2.24763 -1.46072 0.819725
 Ag -0.0508546 1.86253 1.21302
 Ag 1.15015 0.100747 2.16522
 Ag 0.110938 -0.377291 0.131198
 Ag 2.05453 0.467292 4.3534
 Ag 3.49055 0.124673 2.32678
