13
  -42.84393671  
 Ag 0.416124 -1.09746 5.29264
 Ag 3.44143 0.712361 3.67838
 Ag -0.347843 -2.22959 3.36296
 Ag 1.51487 1.03593 2.15781
 Ag 4.03569 -1.23251 2.49069
 Ag 0.0208023 2.5055 3.33529
 Ag -0.553696 0.169127 3.48531
 Ag 2.33705 -0.924243 0.888861
 Ag -0.743165 1.37337 1.40562
 Ag 1.74335 -1.04646 3.28909
 Ag 0.0418601 -0.884361 1.42583
 Ag 1.32999 1.02454 4.67946
 Ag 3.80657 0.855743 1.35623
