13
  -44.88566526  
 Ag 0.925046 -0.107186 3.77396
 Ag 3.35014 -0.163482 3.25287
 Ag -0.321644 -0.175531 1.62993
 Ag 3.90781 1.88938 1.97594
 Ag 1.75879 -1.50056 1.89802
 Ag -0.0160724 1.98046 2.81909
 Ag 1.33295 -0.274065 -0.21625
 Ag 3.60224 -0.266619 0.786779
 Ag 1.82738 3.21441 1.70784
 Ag 1.79308 0.856923 1.80293
 Ag 2.66112 1.82103 -0.168097
 Ag 2.25321 1.98791 3.82212
 Ag 0.236027 1.87733 0.353
