13
  -44.88566526  
 Ag 0.272433 -1.08116 4.95755
 Ag 3.10848 0.494216 2.593
 Ag 0.568603 -2.58684 3.00793
 Ag 1.19909 2.07714 2.65917
 Ag 2.53577 -1.45772 4.01347
 Ag -0.553682 1.1035 4.12054
 Ag -1.34079 -1.00392 3.07411
 Ag 2.32138 -1.6132 1.54656
 Ag -0.768079 0.948015 1.65364
 Ag 0.883847 -0.254851 2.83355
 Ag -0.0744689 -1.33274 0.966004
 Ag 1.84216 0.823038 4.7011
 Ag 1.49526 0.571456 0.709561
