13
  -44.88566526  
 Ag 0.47221 -0.805804 0.676555
 Ag 2.77773 -0.127268 0.0601558
 Ag -1.02003 1.14573 0.329434
 Ag 3.49018 1.66903 1.61627
 Ag 0.845167 0.714094 -1.2487
 Ag -0.240228 0.57114 2.61363
 Ag 0.363231 3.03039 -0.501497
 Ag 2.71038 2.24363 -0.667921
 Ag 1.62498 2.10067 3.1944
 Ag 1.23507 1.40738 0.972852
 Ag 1.99794 3.62057 1.26915
 Ag 2.10692 -0.215619 2.4472
 Ag -0.30758 2.94204 1.88555
