13
  -44.88566526  
 Ag 0.255273 -1.38244 3.92686
 Ag 3.69573 0.59572 3.32169
 Ag 1.26605 -2.22762 1.82453
 Ag 1.83995 2.24008 3.23241
 Ag 2.71634 -1.64312 3.75088
 Ag -0.286366 1.01751 3.60643
 Ag -0.589721 -0.583267 1.73526
 Ag 3.39237 -1.00506 1.45052
 Ag 0.389664 1.65557 1.30607
 Ag 1.553 0.00622685 2.52847
 Ag 1.34911 -0.350033 0.204798
 Ag 1.75689 0.362487 4.85215
 Ag 2.85073 1.39489 1.13009
