13
  -44.88566526  
 Ag 0.264707 -1.08745 4.08195
 Ag 3.81408 0.617863 3.30098
 Ag 1.01686 -1.86984 1.85083
 Ag 2.11915 2.42122 3.47673
 Ag 2.66797 -1.55062 3.67503
 Ag -0.0744848 1.36728 3.9594
 Ag -0.678069 -0.0664837 2.02657
 Ag 3.21049 -0.815899 1.36816
 Ag 0.468037 2.102 1.65253
 Ag 1.568 0.275689 2.66378
 Ag 1.14253 0.101347 0.349361
 Ag 1.99348 0.450032 4.9782
 Ag 2.8713 1.63883 1.24561
