13
  -42.95258692  
 Ag -0.429868 -1.42578 -0.404338
 Ag 1.66397 -0.419916 0.0227218
 Ag -0.229691 0.865621 -0.864693
 Ag -0.328282 0.0943929 1.40659
 Ag 1.70837 1.98686 -0.00688355
 Ag -0.392202 2.45833 0.973219
 Ag 1.84906 0.751823 2.14784
 Ag 3.71347 0.841271 0.625197
 Ag 1.65414 3.15656 2.1567
 Ag -0.0899786 1.73928 3.20609
 Ag 3.58989 3.24185 0.697975
 Ag 2.01268 1.98601 4.24054
 Ag 3.80845 2.05372 2.70806
