13
  -44.88566526  
 Ag 0.296119 -0.588159 3.77796
 Ag 4.23931 -0.156912 3.16046
 Ag 0.769704 -1.16822 1.41257
 Ag 3.30415 2.06991 3.72837
 Ag 2.38025 -1.79969 3.19111
 Ag 0.867123 1.80338 4.11
 Ag -0.165458 1.0586 1.98048
 Ag 3.20673 -0.901696 1.03094
 Ag 1.69361 2.70138 1.94984
 Ag 2.03693 0.450844 2.57047
 Ag 1.6334 0.864824 0.282735
 Ag 2.44045 0.0368645 4.85821
 Ag 3.77774 1.48985 1.36299
