13
  -44.88566526  
 Ag -0.281323 -1.05695 3.53179
 Ag 3.60718 -0.0728485 3.69652
 Ag 0.76694 -1.71121 1.3803
 Ag 2.28015 2.01828 3.84464
 Ag 2.0241 -1.97345 3.50317
 Ag -0.123081 1.41007 3.74282
 Ag -0.560093 0.379921 1.52842
 Ag 3.17017 -1.103 1.48212
 Ag 1.02298 2.28052 1.72177
 Ag 1.52354 0.153536 2.61247
 Ag 1.57304 0.351459 0.261655
 Ag 1.47404 -0.0443863 4.96329
 Ag 3.32841 1.36402 1.69316
