13
  -44.88566526  
 Ag 1.69238 -1.17688 4.34166
 Ag 3.76012 -0.748309 3.03914
 Ag -0.248483 -0.826202 2.83638
 Ag 3.74896 1.63359 2.34471
 Ag 1.82615 -1.86972 1.96304
 Ag 0.403283 0.940146 4.45224
 Ag -0.259642 1.55569 2.14195
 Ag 3.09719 -0.13276 0.728855
 Ag 1.67432 2.67711 3.21805
 Ag 1.75024 0.403693 2.59054
 Ag 0.619741 -0.180901 0.603541
 Ag 2.88073 0.988286 4.57755
 Ag 1.8081 1.98426 0.839431
