13
  -44.88566526  
 Ag 0.422559 -0.431647 2.11069
 Ag 1.36574 -0.244289 -0.176472
 Ag -0.484568 1.25067 0.528687
 Ag 3.85195 1.64164 2.34901
 Ag 1.40826 2.15839 -0.793822
 Ag -0.117837 1.85524 2.90688
 Ag 0.491361 3.45597 1.11179
 Ag 3.48522 1.03707 -0.0291789
 Ag 1.95912 0.733922 3.67152
 Ag 1.68369 1.44615 1.43885
 Ag 2.94482 3.32396 0.767013
 Ag 2.87602 -0.563657 1.76591
 Ag 2.00164 3.1366 3.05417
