13
  -44.88566526  
 Ag 1.24602 -1.18273 1.95541
 Ag 3.58928 -0.373055 1.8587
 Ag -0.0456265 -0.00424874 0.195121
 Ag 3.58686 2.04809 2.40074
 Ag 2.29913 -0.69093 -0.236594
 Ag -0.204613 0.738019 2.55723
 Ag 1.49935 1.53376 -0.989511
 Ag 3.74585 1.30583 0.0386361
 Ag 1.24211 2.73478 2.83246
 Ag 1.77062 1.02192 1.29793
 Ag 2.29521 3.22657 0.640452
 Ag 2.04188 0.510084 3.58537
 Ag -0.0480466 2.4169 0.737166
