13
  -44.88566526  
 Ag 1.13339 -0.792578 1.49262
 Ag 3.33405 0.108704 0.78511
 Ag -0.611129 0.848917 0.846129
 Ag 3.74666 2.2037 2.04865
 Ag 1.33452 0.455422 -0.64229
 Ag 0.185918 0.745392 3.19342
 Ag 0.511363 2.7647 -0.260929
 Ag 2.94961 2.30722 -0.298641
 Ag 1.80101 2.59719 3.53707
 Ag 1.56777 1.52631 1.44739
 Ag 2.00215 3.84519 1.40216
 Ag 2.62417 0.287915 3.15571
 Ag -0.198513 2.94391 2.10967
